-------------------------------------------------------
          Amber 22 PMEMD                              2022
          -------------------------------------------------------

  [-O]verwriting output

File Assignments:

 Here is the input file:

Pseudorotation Protocol, 20 ns
 &cntrl
  imin=0, irest=0, ntx=1,
  ntpr=10000, ntwr=10000, ntwx=10000,
  ntb=0, cut=999.0, ntr=0,
  tempi=310.15, temp0=310.15, ntt=3, gamma_ln=1, nstlim=10000000, dt=0.002,
  igb=8, saltcon=0.3, ig=-1,
  pencut=-0.001, nmropt=0, ioutfm=1,
 /

Note: ig = -1. Setting random seed to   346954 based on wallclock time in
      microseconds.

--------------------------------------------------------------------------------
   1.  RESOURCE   USE:
--------------------------------------------------------------------------------

 NATOM  =     854 NTYPES =      14 NBONH =     290 MBONA  =     626
 NTHETH =     668 MTHETA =     973 NPHIH =    1520 MPHIA  =    2229
 NHPARM =       0 NPARM  =       0 NNB   =    4793 NRES   =      27
 NBONA  =     626 NTHETA =     973 NPHIA =    2229 NUMBND =      55
 NUMANG =     123 NPTRA  =     116 NATYP =      33 NPHB   =       0
 IFBOX  =       0 NMXRS  =      35 IFCAP =       0 NEXTRA =       0
 NCOPY  =       0

 Implicit solvent radii are ArgH and AspGluO modified Bondi2 radii (mbondi3)
 Replacing prmtop screening parameters with GBn2 (igb=8) values
--------------------------------------------------------------------------------
   2.  CONTROL  DATA  FOR  THE  RUN
--------------------------------------------------------------------------------

default_name

General flags:
     imin    =       0, nmropt  =       0

Nature and format of input:
     ntx     =       1, irest   =       0, ntrx    =       1

Nature and format of output:
     ntxo    =       2, ntpr    =   10000, ntrx    =       1, ntwr    =   10000
     iwrap   =       0, ntwx    =   10000, ntwv    =       0, ntwe    =       0
     ioutfm  =       1, ntwprt  =       0, idecomp =       0, rbornstat=      0

Potential function:
     ntf     =       1, ntb     =       0, igb     =       8, nsnb    =      25
     ipol    =       0, gbsa    =       0, iesp    =       0
     dielc   =   1.00000, cut     = 999.00000, intdiel =   1.00000
     saltcon =   0.30000, offset  =   0.19514, surften =   0.00500
     rdt     =   0.00000, rgbmax  =  25.00000  extdiel =  78.50000
     alpb  =        0
     gbalphaH  =   0.78844, gbbetaH   =   0.79870,  gbgammaH  =    0.43733
     gbalphaC  =   0.73376, gbbetaC   =   0.50638,  gbgammaC  =    0.20584
     gbalphaN  =   0.50336, gbbetaN   =   0.31683,  gbgammaN  =    0.19292
     gbalphaOS =   0.86781, gbbetaOS  =   0.87664,  gbgammaOS =    0.38788
     gbalphaP  =   1.00000, gbbetaP   =   0.80000,  gbgammaP  =    4.85000
     gb_alpha_hnu  =   0.53705, gb_beta_hnu   =   0.36286,  gb_gamma_hnu  =    0.11670
     gb_alpha_cnu  =   0.33167, gb_beta_cnu   =   0.19684,  gb_gamma_cnu  =    0.09342
     gb_alpha_nnu  =   0.68631, gb_beta_nnu   =   0.46319,  gb_gamma_nnu  =    0.13872
     gb_alpha_onu  =   0.60634, gb_beta_onu   =   0.46301,  gb_gamma_onu  =    0.14226
     gb_alpha_pnu  =   0.41836, gb_beta_pnu   =   0.29005,  gb_gamma_pnu  =    0.10642

Frozen or restrained atoms:
     ibelly  =       0, ntr     =       0

Molecular dynamics:
     nstlim  =  10000000, nscm    =      1000, nrespa  =         1
     t       =   0.00000, dt      =   0.00200, vlimit  =  -1.00000

Langevin dynamics temperature regulation:
     ig      =  346954
     temp0   = 310.15000, tempi   = 310.15000, gamma_ln=   1.00000

--------------------------------------------------------------------------------
   3.  ATOMIC COORDINATES AND VELOCITIES
--------------------------------------------------------------------------------

default_name
 begin time read from input coords =     0.000 ps

 Number of triangulated 3-point waters found:        0

--------------------------------------------------------------------------------
   4.  RESULTS
 NSTEP =        0   TIME(PS) =       0.000  TEMP(K) =   300.60  PRESS =     0.0
 Etot   =     -9697.5050  EKtot   =       765.2024  EPtot      =    -10462.7073
 BOND   =       126.4037  ANGLE   =       321.6854  DIHED      =      1016.1750
 1-4 NB =       220.1433  1-4 EEL =     -3545.4737  VDWAALS    =      -209.1329
 EELEC  =      7583.5109  EGB     =    -15976.0192  RESTRAINT  =         0.0000
 ------------------------------------------------------------------------------

      A V E R A G E S   O V E R    1000 S T E P S

 NSTEP = 10000000   TIME(PS) =   20000.000  TEMP(K) =   310.72  PRESS =     0.0
 Etot   =    -10399.9466  EKtot   =       790.9691  EPtot      =    -11190.9156
 BOND   =       481.2183  ANGLE   =       694.4812  DIHED      =      1124.4989
 1-4 NB =       216.8030  1-4 EEL =     -3687.7461  VDWAALS    =      -196.3202
 EELEC  =     11630.1932  EGB     =    -21454.0439  RESTRAINT  =         0.0000
 ------------------------------------------------------------------------------

      R M S  F L U C T U A T I O N S

 NSTEP = 10000000   TIME(PS) =   20000.000  TEMP(K) =     8.40  PRESS =     0.0
 Etot   =        49.6458  EKtot   =        21.3718  EPtot      =        45.2327
 BOND   =        20.0388  ANGLE   =        21.2441  DIHED      =        14.3466
 1-4 NB =         5.8657  1-4 EEL =        17.8835  VDWAALS    =        16.6410
 EELEC  =       125.7462  EGB     =       157.6340  RESTRAINT  =         0.0000
 ------------------------------------------------------------------------------
